LTspice 24.0.9 for Windows
Circuit: * C:\Users\49157\Nextcloud\Studium\fachlich\power electronics\assignment_2\Assignment_2\boost_conv\Inverter_DP.asc
Start Time: Wed Jun  4 20:22:20 2025
solver = Normal
Maximum thread count: 16
tnom = 27
temp = 27
method = modified trap
c3: Increased Cpar to 5.6e-12
c4: Increased Cpar to 5.6e-12
c5: Increased Cpar to 5.6e-12
c6: Increased Cpar to 5.6e-12
c7: Increased Cpar to 5.6e-12
c8: Increased Cpar to 5.6e-12
c9: Increased Cpar to 5.6e-12
c10: Increased Cpar to 5.6e-12
c11: Increased Cpar to 5.6e-12
c12: Increased Cpar to 5.6e-12
c13: Increased Cpar to 5.6e-12
c1: Increased Cpar to 1e-12
c2: Increased Cpar to 1e-12
WARNING: Less than two connections to node u1:1:iq1.  This node is used by e:u1:1:q1:1:curr.
WARNING: Less than two connections to node u1:1:iq2.  This node is used by e:u1:1:q2:1:curr.
WARNING: Less than two connections to node u1:1:id1.  This node is used by v:u1:1:d1:.
WARNING: Less than two connections to node u1:1:id2.  This node is used by v:u1:1:d2:.
WARNING: Less than two connections to node tjd1.  This node is used by r:u1:1:d1_thermal:t.
WARNING: Less than two connections to node tjd2.  This node is used by r:u1:1:d2_thermal:t.
Direct Newton iteration for .op point succeeded.
Heightened Def Con from 1e-13 to 2.0001e-09

e_on: INTEG(v(n008)*i(r3))=0.000325088 FROM 1.7e-05 TO 1.72e-05
e_off: INTEG(v(n008)*i(r3))=0.000122818 FROM 3.2e-05 TO 3.22e-05

Total elapsed time: 0.710 seconds.

